/*--------------------------------*- C++ -*----------------------------------*\\
/*--------------------------------*- C++ -*----------------------------------*\\
| =========                 |                                                 |
| \\\\      /  F ield         | OpenFOAM: The Open Source CFD Toolbox           |
|  \\\\    /   O peration     | Version:  v2012                                 |
|   \\\\  /    A nd           | Website:  www.openfoam.com                      |
|    \\\\/     M anipulation  |                                                 |
\\*---------------------------------------------------------------------------*/
FoamFile
{
    version     2.0;
    format      ascii;
    class       dictionary;
    object      blockMeshDict;
}
// * * * * * * * * * * * * * * * * * * * * * * * * * * * * * * * * * * * * * //

scale   0.01;

xmin -1;
xmax 5;
ymin 0;
ymax 0.5;
zmin 0;
zmax 0.1;

vertices
(
    (  -1.0  -0.0725367461538377  $zmin  )
    (  4.0  0.11269351357889913  $zmin  )
    (  4.0  0.6126935135788991  $zmin  )
    (  -1.0  0.4274632538461623  $zmin  )
    (  -1.0  -0.0725367461538377  $zmax )
    (  4.0  0.11269351357889913  $zmax )
    (  4.0  0.6126935135788991  $zmax )
    (  -1.0  0.4274632538461623  $zmax )
);

blocks
(
    hex (0 1 2 3 4 5 6 7) (200 20 1) simpleGrading (1 1 1)
);

edges
(
	polyLine 0 1 ((	-1.0	-0.0725367461538377	0	)
(	-0.98	-0.0725367461538377	0	)
(	-0.96	-0.0725367461538377	0	)
(	-0.94	-0.0725367461538377	0	)
(	-0.92	-0.0725367461538377	0	)
(	-0.9	-0.0725367461538377	0	)
(	-0.88	-0.0725367461538377	0	)
(	-0.86	-0.0725367461538377	0	)
(	-0.84	-0.0725367461538377	0	)
(	-0.8200000000000001	-0.0725367461538377	0	)
(	-0.8	-0.0725367461538377	0	)
(	-0.78	-0.0725367461538377	0	)
(	-0.76	-0.0725367461538377	0	)
(	-0.74	-0.0725367461538377	0	)
(	-0.72	-0.0725367461538377	0	)
(	-0.7	-0.0725367461538377	0	)
(	-0.6799999999999999	-0.0725367461538377	0	)
(	-0.6599999999999999	-0.0725367461538377	0	)
(	-0.64	-0.0725367461538377	0	)
(	-0.62	-0.0725367461538377	0	)
(	-0.6	-0.0725367461538377	0	)
(	-0.5800000000000001	-0.0725367461538377	0	)
(	-0.56	-0.0725367461538377	0	)
(	-0.54	-0.0725367461538377	0	)
(	-0.52	-0.0725367461538377	0	)
(	-0.5	-0.0725367461538377	0	)
(	-0.48	-0.0725367461538377	0	)
(	-0.45999999999999996	-0.0725367461538377	0	)
(	-0.43999999999999995	-0.0725367461538377	0	)
(	-0.42000000000000004	-0.0725367461538377	0	)
(	-0.4	-0.0725367461538377	0	)
(	-0.38	-0.0725367461538377	0	)
(	-0.36	-0.0725367461538377	0	)
(	-0.33999999999999997	-0.0725367461538377	0	)
(	-0.31999999999999995	-0.0725367461538377	0	)
(	-0.29999999999999993	-0.0725367461538377	0	)
(	-0.28	-0.0725367461538377	0	)
(	-0.26	-0.0725367461538377	0	)
(	-0.24	-0.0725367461538377	0	)
(	-0.21999999999999997	-0.0725367461538377	0	)
(	-0.19999999999999996	-0.0725367461538377	0	)
(	-0.17999999999999994	-0.0725367461538377	0	)
(	-0.16000000000000003	-0.0725367461538377	0	)
(	-0.14	-0.0725367461538377	0	)
(	-0.12	-0.0725367461538377	0	)
(	-0.09999999999999998	-0.0725367461538377	0	)
(	-0.07957790192427062	-0.07308648341045326	0	)
(	-0.059155803848541265	-0.07094330758904246	0	)
(	-0.038733705772811905	-0.06610721868960538	0	)
(	-0.018311607697082552	-0.05857821671214197	0	)
(	0.002110490378646801	-0.04835630165665225	0	)
(	0.022532588454376168	-0.035441473523136216	0	)
(	0.04295468653010551	-0.019833732311593882	0	)
(	0.06337678460583487	-0.0015330780220252065	0	)
(	0.08379888268156424	0.019460489345569782	0	)
(	0.08379888268156424	0.019460489345569782	0	)
(	0.1005586592178771	0.03794799928531307	0	)
(	0.11731843575418995	0.0562252102737856	0	)
(	0.1340782122905028	0.07419083427537501	0	)
(	0.15083798882681565	0.09174530999679542	0	)
(	0.16759776536312848	0.10879135463252738	0	)
(	0.18435754189944134	0.12523450298341104	0	)
(	0.2011173184357542	0.1409836309607222	0	)
(	0.21787709497206703	0.15595146057459483	0	)
(	0.2346368715083799	0.17005504360826193	0	)
(	0.25139664804469275	0.1832162212977043	0	)
(	0.2681564245810056	0.19536205746927096	0	)
(	0.2849162011173184	0.20642524273492333	0	)
(	0.3016759776536313	0.21634446750514685	0	)
(	0.31843575418994413	0.22506476175238052	0	)
(	0.33519553072625696	0.2325377996420745	0	)
(	0.35195530726256985	0.23872216734318075	0	)
(	0.3687150837988827	0.24358359253393494	0	)
(	0.3854748603351955	0.24709513433106134	0	)
(	0.4022346368715084	0.24923733258985706	0	)
(	0.41899441340782123	0.24999831574777	0	)
(	0.43575418994413406	0.24937386661382693	0	)
(	0.4525139664804469	0.2473674457393206	0	)
(	0.4692737430167598	0.24399017224024308	0	)
(	0.4860335195530726	0.2392607621777408	0	)
(	0.5027932960893855	0.233205424838074	0	)
(	0.5195530726256983	0.2258577174868722	0	)
(	0.5363128491620112	0.2172583594026033	0	)
(	0.553072625698324	0.20745500621984048	0	)
(	0.5698324022346368	0.1965019858328629	0	)
(	0.5865921787709497	0.1844599973231504	0	)
(	0.6033519553072626	0.171395774579248	0	)
(	0.6201117318435754	0.15738171647313734	0	)
(	0.6368715083798883	0.1424954856425926	0	)
(	0.6536312849162011	0.12681957810297698	0	)
(	0.6703910614525139	0.11044086607358769	0	)
(	0.6871508379888268	0.09345011655210056	0	)
(	0.7039106145251397	0.07594148830506393	0	)
(	0.7206703910614525	0.058012010061999346	0	)
(	0.7374301675977654	0.03976104280483878	0	)
(	0.7541899441340782	0.02128972913256379	0	)
(	0.770949720670391	0.0027004327525377457	0	)
(	0.7877094972067039	-0.015903828795258285	0	)
(	0.8044692737430168	-0.03441995503737746	0	)
(	0.8212290502793296	-0.05274533392565794	0	)
(	0.8379888268156425	-0.0707784104892338	0	)
(	0.8547486033519552	-0.0884192496284703	0	)
(	0.8715083798882681	-0.10557008993195259	0	)
(	0.888268156424581	-0.1221358854473994	0	)
(	0.9050279329608938	-0.13802483240413818	0	)
(	0.9217877094972067	-0.15314887796816679	0	)
(	0.9385474860335196	-0.1674242082103981	0	)
(	0.9553072625698323	-0.18077171258388577	0	)
(	0.9720670391061452	-0.19311742233600282	0	)
(	0.9888268156424581	-0.20439292042599702	0	)
(	1.005586592178771	-0.21453572067625606	0	)
(	1.0223463687150838	-0.22348961405611267	0	)
(	1.0391061452513966	-0.23120498017916907	0	)
(	1.0558659217877095	-0.23763906228789106	0	)
(	1.0726256983240223	-0.24275620420157487	0	)
(	1.089385474860335	-0.2465280479145756	0	)
(	1.106145251396648	-0.2489336907497525	0	)
(	1.1229050279329609	-0.2499598011962249	0	)
(	1.1396648044692737	-0.2496006927894927	0	)
(	1.1564245810055866	-0.2478583556244952	0	)
(	1.1731843575418994	-0.24474244532696918	0	)
(	1.1899441340782122	-0.24027022954422575	0	)
(	1.2067039106145252	-0.2344664922518809	0	)
(	1.223463687150838	-0.22736339640685005	0	)
(	1.2402234636871508	-0.21900030570775025	0	)
(	1.2569832402234637	-0.2094235664504736	0	)
(	1.2737430167597765	-0.19868625068783816	0	)
(	1.2905027932960893	-0.18684786211666238	0	)
(	1.3072625698324023	-0.1739740063221717	0	)
(	1.324022346368715	-0.16013602720716447	0	)
(	1.3407821229050279	-0.14541061162076063	0	)
(	1.3575418994413408	-0.1298793643777896	0	)
(	1.3743016759776536	-0.11362835602396278	0	)
(	1.3910614525139664	-0.09674764585300473	0	)
(	1.4078212290502794	-0.0793307828190766	0	)
(	1.4245810055865922	-0.06147428711031654	0	)
(	1.441340782122905	-0.04327711525649219	0	)
(	1.458100558659218	-0.024840111735020636	0	)
(	1.4748603351955307	-0.006265450114421417	0	)
(	1.4916201117318435	0.012343933167744075	0	)
(	1.5083798882681565	0.03088490925457348	0	)
(	1.5251396648044693	0.04925472838586718	0	)
(	1.541899441340782	0.06735158931330973	0	)
(	1.558659217877095	0.08507520345921563	0	)
(	1.5754189944134078	0.10232735069241002	0	)
(	1.5921787709497206	0.11901242364126248	0	)
(	1.6089385474860336	0.13503795752741593	0	)
(	1.6256983240223464	0.1503151425839972	0	)
(	1.6424581005586592	0.16475931621860998	0	)
(	1.659217877094972	0.1782904321936516	0	)
(	1.675977653631285	0.19083350422387224	0	)
(	1.6927374301675977	0.20231902153285786	0	)
(	1.7094972067039105	0.2126833340655234	0	)
(	1.7262569832402235	0.22186900522185568	0	)
(	1.7430167597765363	0.22982513015713865	0	)
(	1.759776536312849	0.2365076178847175	0	)
(	1.776536312849162	0.24187943561795114	0	)
(	1.7932960893854748	0.2459108139972686	0	)
(	1.8100558659217876	0.24857941206500922	0	)
(	1.8268156424581006	0.24987044107379308	0	)
(	1.8435754189944134	0.24977674644230546	0	)
(	1.8603351955307261	0.24829884740431668	0	)
(	1.8770949720670391	0.24544493413120944	0	)
(	1.893854748603352	0.24123082234396126	0	)
(	1.9106145251396647	0.23567986566611163	0	)
(	1.9273743016759777	0.22882282620343405	0	)
(	1.9441340782122905	0.22069770406752837	0	)
(	1.9608938547486032	0.2113495267880747	0	)
(	1.9776536312849162	0.20083009978077807	0	)
(	1.994413407821229	0.18919771925385176	0	)
(	2.011173184357542	0.17651684914404248	0	)
(	2.0279329608938546	0.1628577638725462	0	)
(	2.0446927374301676	0.148296158900572	0	)
(	2.0614525139664805	0.1329127312427747	0	)
(	2.078212290502793	0.11679273226323973	0	)
(	2.094972067039106	0.10002549523232984	0	)
(	2.111731843575419	0.08270394026255995	0	)
(	2.1284916201117317	0.06492405936703109	0	)
(	2.1452513966480447	0.04678438449410428	0	)
(	2.1620111731843576	0.028385441486354756	0	)
(	2.17877094972067	0.009829192989822043	0	)
(	2.195530726256983	-0.008781526599167288	0	)
(	2.212290502793296	-0.027343581018209818	0	)
(	2.2290502793296088	-0.04575410369591077	0	)
(	2.2458100558659218	-0.06391106781440489	0	)
(	2.2625698324022347	-0.08171385171815541	0	)
(	2.2793296089385473	-0.09906379653567546	0	)
(	2.2960893854748603	-0.1158647529239584	0	)
(	2.3128491620111733	-0.13202361390568373	0	)
(	2.329608938547486	-0.147450830846346	0	)
(	2.346368715083799	-0.16206090971188036	0	)
(	2.363128491620112	-0.17577288485663228	0	)
(	2.3798882681564244	-0.18851076771606315	0	)
(	2.3966480446927374	-0.2002039679176322	0	)
(	2.4134078212290504	-0.21078768447615678	0	)
(	2.430167597765363	-0.2202032649057422	0	)
(	2.446927374301676	-0.22839853025816412	0	)
(	2.463687150837989	-0.23532806428641426	0	)
(	2.4804469273743015	-0.24095346513093782	0	)
(	2.4972067039106145	-0.24524355813377252	0	)
(	2.5139664804469275	-0.2481745686012231	0	)
(	2.53072625698324	-0.24973025355766318	0	)
(	2.547486033519553	-0.2499019917603128	0	)
(	2.564245810055866	-0.2486888314761533	0	)
(	2.5810055865921786	-0.24609749575620968	0	)
(	2.5977653631284916	-0.24214234517797079	0	)
(	2.6145251396648046	-0.23684529826242293	0	)
(	2.631284916201117	-0.23023571000672427	0	)
(	2.64804469273743	-0.22235020920566437	0	)
(	2.664804469273743	-0.21323249546343692	0	)
(	2.6815642458100557	-0.20293309702063694	0	)
(	2.6983240223463687	-0.19150909073854888	0	)
(	2.7150837988826817	-0.17902378579250922	0	)
(	2.7318435754189943	-0.1655463728272402	0	)
(	2.7486033519553073	-0.1511515405184505	0	)
(	2.7653631284916202	-0.13591906166563636	0	)
(	2.782122905027933	-0.11993335110985247	0	)
(	2.798882681564246	-0.10328299792637248	0	)
(	2.815642458100559	-0.08606027448472132	0	)
(	2.8324022346368714	-0.06836062509674769	0	)
(	2.8491620111731844	-0.050282137086532425	0	)
(	2.8659217877094973	-0.03192499721334421	0	)
(	2.88268156424581	-0.013390936460012189	0	)
(	2.899441340782123	0.005217333736429964	0	)
(	2.916201117318436	0.023796690687539965	0	)
(	2.9329608938547485	0.042244171935330414	0	)
(	2.9537430167597765	0.05803236604129277	0	)
(	2.9745251396648045	0.07183043777753031	0	)
(	2.9953072625698325	0.08363838714404309	0	)
(	3.0160893854748605	0.09345621414083105	0	)
(	3.036871508379888	0.10128391876789411	0	)
(	3.057653631284916	0.10712150102523255	0	)
(	3.078435754189944	0.11096896091284619	0	)
(	3.099217877094972	0.11282629843073506	0	)
(	3.12	0.11269351357889913	0	)
(	3.12	0.11269351357889913	0	)
(	3.14	0.11269351357889913	0	)
(	3.16	0.11269351357889913	0	)
(	3.1799999999999997	0.11269351357889913	0	)
(	3.2	0.11269351357889913	0	)
(	3.2199999999999998	0.11269351357889913	0	)
(	3.24	0.11269351357889913	0	)
(	3.26	0.11269351357889913	0	)
(	3.2800000000000002	0.11269351357889913	0	)
(	3.3	0.11269351357889913	0	)
(	3.32	0.11269351357889913	0	)
(	3.34	0.11269351357889913	0	)
(	3.36	0.11269351357889913	0	)
(	3.38	0.11269351357889913	0	)
(	3.4	0.11269351357889913	0	)
(	3.42	0.11269351357889913	0	)
(	3.44	0.11269351357889913	0	)
(	3.46	0.11269351357889913	0	)
(	3.48	0.11269351357889913	0	)
(	3.5	0.11269351357889913	0	)
(	3.52	0.11269351357889913	0	)
(	3.54	0.11269351357889913	0	)
(	3.56	0.11269351357889913	0	)
(	3.58	0.11269351357889913	0	)
(	3.6	0.11269351357889913	0	)
(	3.62	0.11269351357889913	0	)
(	3.64	0.11269351357889913	0	)
(	3.66	0.11269351357889913	0	)
(	3.68	0.11269351357889913	0	)
(	3.7	0.11269351357889913	0	)
(	3.7199999999999998	0.11269351357889913	0	)
(	3.74	0.11269351357889913	0	)
(	3.76	0.11269351357889913	0	)
(	3.78	0.11269351357889913	0	)
(	3.8	0.11269351357889913	0	)
(	3.82	0.11269351357889913	0	)
(	3.84	0.11269351357889913	0	)
(	3.86	0.11269351357889913	0	)
(	3.88	0.11269351357889913	0	)
(	3.9	0.11269351357889913	0	)
(	3.92	0.11269351357889913	0	)
(	3.94	0.11269351357889913	0	)
(	3.96	0.11269351357889913	0	)
(	3.98	0.11269351357889913	0	)
(	4.0	0.11269351357889913	0	)
)
	polyLine 4 5 ((	-1.0	-0.0725367461538377	0.1	)
(	-0.98	-0.0725367461538377	0.1	)
(	-0.96	-0.0725367461538377	0.1	)
(	-0.94	-0.0725367461538377	0.1	)
(	-0.92	-0.0725367461538377	0.1	)
(	-0.9	-0.0725367461538377	0.1	)
(	-0.88	-0.0725367461538377	0.1	)
(	-0.86	-0.0725367461538377	0.1	)
(	-0.84	-0.0725367461538377	0.1	)
(	-0.8200000000000001	-0.0725367461538377	0.1	)
(	-0.8	-0.0725367461538377	0.1	)
(	-0.78	-0.0725367461538377	0.1	)
(	-0.76	-0.0725367461538377	0.1	)
(	-0.74	-0.0725367461538377	0.1	)
(	-0.72	-0.0725367461538377	0.1	)
(	-0.7	-0.0725367461538377	0.1	)
(	-0.6799999999999999	-0.0725367461538377	0.1	)
(	-0.6599999999999999	-0.0725367461538377	0.1	)
(	-0.64	-0.0725367461538377	0.1	)
(	-0.62	-0.0725367461538377	0.1	)
(	-0.6	-0.0725367461538377	0.1	)
(	-0.5800000000000001	-0.0725367461538377	0.1	)
(	-0.56	-0.0725367461538377	0.1	)
(	-0.54	-0.0725367461538377	0.1	)
(	-0.52	-0.0725367461538377	0.1	)
(	-0.5	-0.0725367461538377	0.1	)
(	-0.48	-0.0725367461538377	0.1	)
(	-0.45999999999999996	-0.0725367461538377	0.1	)
(	-0.43999999999999995	-0.0725367461538377	0.1	)
(	-0.42000000000000004	-0.0725367461538377	0.1	)
(	-0.4	-0.0725367461538377	0.1	)
(	-0.38	-0.0725367461538377	0.1	)
(	-0.36	-0.0725367461538377	0.1	)
(	-0.33999999999999997	-0.0725367461538377	0.1	)
(	-0.31999999999999995	-0.0725367461538377	0.1	)
(	-0.29999999999999993	-0.0725367461538377	0.1	)
(	-0.28	-0.0725367461538377	0.1	)
(	-0.26	-0.0725367461538377	0.1	)
(	-0.24	-0.0725367461538377	0.1	)
(	-0.21999999999999997	-0.0725367461538377	0.1	)
(	-0.19999999999999996	-0.0725367461538377	0.1	)
(	-0.17999999999999994	-0.0725367461538377	0.1	)
(	-0.16000000000000003	-0.0725367461538377	0.1	)
(	-0.14	-0.0725367461538377	0.1	)
(	-0.12	-0.0725367461538377	0.1	)
(	-0.09999999999999998	-0.0725367461538377	0.1	)
(	-0.07957790192427062	-0.07308648341045326	0.1	)
(	-0.059155803848541265	-0.07094330758904246	0.1	)
(	-0.038733705772811905	-0.06610721868960538	0.1	)
(	-0.018311607697082552	-0.05857821671214197	0.1	)
(	0.002110490378646801	-0.04835630165665225	0.1	)
(	0.022532588454376168	-0.035441473523136216	0.1	)
(	0.04295468653010551	-0.019833732311593882	0.1	)
(	0.06337678460583487	-0.0015330780220252065	0.1	)
(	0.08379888268156424	0.019460489345569782	0.1	)
(	0.08379888268156424	0.019460489345569782	0.1	)
(	0.1005586592178771	0.03794799928531307	0.1	)
(	0.11731843575418995	0.0562252102737856	0.1	)
(	0.1340782122905028	0.07419083427537501	0.1	)
(	0.15083798882681565	0.09174530999679542	0.1	)
(	0.16759776536312848	0.10879135463252738	0.1	)
(	0.18435754189944134	0.12523450298341104	0.1	)
(	0.2011173184357542	0.1409836309607222	0.1	)
(	0.21787709497206703	0.15595146057459483	0.1	)
(	0.2346368715083799	0.17005504360826193	0.1	)
(	0.25139664804469275	0.1832162212977043	0.1	)
(	0.2681564245810056	0.19536205746927096	0.1	)
(	0.2849162011173184	0.20642524273492333	0.1	)
(	0.3016759776536313	0.21634446750514685	0.1	)
(	0.31843575418994413	0.22506476175238052	0.1	)
(	0.33519553072625696	0.2325377996420745	0.1	)
(	0.35195530726256985	0.23872216734318075	0.1	)
(	0.3687150837988827	0.24358359253393494	0.1	)
(	0.3854748603351955	0.24709513433106134	0.1	)
(	0.4022346368715084	0.24923733258985706	0.1	)
(	0.41899441340782123	0.24999831574777	0.1	)
(	0.43575418994413406	0.24937386661382693	0.1	)
(	0.4525139664804469	0.2473674457393206	0.1	)
(	0.4692737430167598	0.24399017224024308	0.1	)
(	0.4860335195530726	0.2392607621777408	0.1	)
(	0.5027932960893855	0.233205424838074	0.1	)
(	0.5195530726256983	0.2258577174868722	0.1	)
(	0.5363128491620112	0.2172583594026033	0.1	)
(	0.553072625698324	0.20745500621984048	0.1	)
(	0.5698324022346368	0.1965019858328629	0.1	)
(	0.5865921787709497	0.1844599973231504	0.1	)
(	0.6033519553072626	0.171395774579248	0.1	)
(	0.6201117318435754	0.15738171647313734	0.1	)
(	0.6368715083798883	0.1424954856425926	0.1	)
(	0.6536312849162011	0.12681957810297698	0.1	)
(	0.6703910614525139	0.11044086607358769	0.1	)
(	0.6871508379888268	0.09345011655210056	0.1	)
(	0.7039106145251397	0.07594148830506393	0.1	)
(	0.7206703910614525	0.058012010061999346	0.1	)
(	0.7374301675977654	0.03976104280483878	0.1	)
(	0.7541899441340782	0.02128972913256379	0.1	)
(	0.770949720670391	0.0027004327525377457	0.1	)
(	0.7877094972067039	-0.015903828795258285	0.1	)
(	0.8044692737430168	-0.03441995503737746	0.1	)
(	0.8212290502793296	-0.05274533392565794	0.1	)
(	0.8379888268156425	-0.0707784104892338	0.1	)
(	0.8547486033519552	-0.0884192496284703	0.1	)
(	0.8715083798882681	-0.10557008993195259	0.1	)
(	0.888268156424581	-0.1221358854473994	0.1	)
(	0.9050279329608938	-0.13802483240413818	0.1	)
(	0.9217877094972067	-0.15314887796816679	0.1	)
(	0.9385474860335196	-0.1674242082103981	0.1	)
(	0.9553072625698323	-0.18077171258388577	0.1	)
(	0.9720670391061452	-0.19311742233600282	0.1	)
(	0.9888268156424581	-0.20439292042599702	0.1	)
(	1.005586592178771	-0.21453572067625606	0.1	)
(	1.0223463687150838	-0.22348961405611267	0.1	)
(	1.0391061452513966	-0.23120498017916907	0.1	)
(	1.0558659217877095	-0.23763906228789106	0.1	)
(	1.0726256983240223	-0.24275620420157487	0.1	)
(	1.089385474860335	-0.2465280479145756	0.1	)
(	1.106145251396648	-0.2489336907497525	0.1	)
(	1.1229050279329609	-0.2499598011962249	0.1	)
(	1.1396648044692737	-0.2496006927894927	0.1	)
(	1.1564245810055866	-0.2478583556244952	0.1	)
(	1.1731843575418994	-0.24474244532696918	0.1	)
(	1.1899441340782122	-0.24027022954422575	0.1	)
(	1.2067039106145252	-0.2344664922518809	0.1	)
(	1.223463687150838	-0.22736339640685005	0.1	)
(	1.2402234636871508	-0.21900030570775025	0.1	)
(	1.2569832402234637	-0.2094235664504736	0.1	)
(	1.2737430167597765	-0.19868625068783816	0.1	)
(	1.2905027932960893	-0.18684786211666238	0.1	)
(	1.3072625698324023	-0.1739740063221717	0.1	)
(	1.324022346368715	-0.16013602720716447	0.1	)
(	1.3407821229050279	-0.14541061162076063	0.1	)
(	1.3575418994413408	-0.1298793643777896	0.1	)
(	1.3743016759776536	-0.11362835602396278	0.1	)
(	1.3910614525139664	-0.09674764585300473	0.1	)
(	1.4078212290502794	-0.0793307828190766	0.1	)
(	1.4245810055865922	-0.06147428711031654	0.1	)
(	1.441340782122905	-0.04327711525649219	0.1	)
(	1.458100558659218	-0.024840111735020636	0.1	)
(	1.4748603351955307	-0.006265450114421417	0.1	)
(	1.4916201117318435	0.012343933167744075	0.1	)
(	1.5083798882681565	0.03088490925457348	0.1	)
(	1.5251396648044693	0.04925472838586718	0.1	)
(	1.541899441340782	0.06735158931330973	0.1	)
(	1.558659217877095	0.08507520345921563	0.1	)
(	1.5754189944134078	0.10232735069241002	0.1	)
(	1.5921787709497206	0.11901242364126248	0.1	)
(	1.6089385474860336	0.13503795752741593	0.1	)
(	1.6256983240223464	0.1503151425839972	0.1	)
(	1.6424581005586592	0.16475931621860998	0.1	)
(	1.659217877094972	0.1782904321936516	0.1	)
(	1.675977653631285	0.19083350422387224	0.1	)
(	1.6927374301675977	0.20231902153285786	0.1	)
(	1.7094972067039105	0.2126833340655234	0.1	)
(	1.7262569832402235	0.22186900522185568	0.1	)
(	1.7430167597765363	0.22982513015713865	0.1	)
(	1.759776536312849	0.2365076178847175	0.1	)
(	1.776536312849162	0.24187943561795114	0.1	)
(	1.7932960893854748	0.2459108139972686	0.1	)
(	1.8100558659217876	0.24857941206500922	0.1	)
(	1.8268156424581006	0.24987044107379308	0.1	)
(	1.8435754189944134	0.24977674644230546	0.1	)
(	1.8603351955307261	0.24829884740431668	0.1	)
(	1.8770949720670391	0.24544493413120944	0.1	)
(	1.893854748603352	0.24123082234396126	0.1	)
(	1.9106145251396647	0.23567986566611163	0.1	)
(	1.9273743016759777	0.22882282620343405	0.1	)
(	1.9441340782122905	0.22069770406752837	0.1	)
(	1.9608938547486032	0.2113495267880747	0.1	)
(	1.9776536312849162	0.20083009978077807	0.1	)
(	1.994413407821229	0.18919771925385176	0.1	)
(	2.011173184357542	0.17651684914404248	0.1	)
(	2.0279329608938546	0.1628577638725462	0.1	)
(	2.0446927374301676	0.148296158900572	0.1	)
(	2.0614525139664805	0.1329127312427747	0.1	)
(	2.078212290502793	0.11679273226323973	0.1	)
(	2.094972067039106	0.10002549523232984	0.1	)
(	2.111731843575419	0.08270394026255995	0.1	)
(	2.1284916201117317	0.06492405936703109	0.1	)
(	2.1452513966480447	0.04678438449410428	0.1	)
(	2.1620111731843576	0.028385441486354756	0.1	)
(	2.17877094972067	0.009829192989822043	0.1	)
(	2.195530726256983	-0.008781526599167288	0.1	)
(	2.212290502793296	-0.027343581018209818	0.1	)
(	2.2290502793296088	-0.04575410369591077	0.1	)
(	2.2458100558659218	-0.06391106781440489	0.1	)
(	2.2625698324022347	-0.08171385171815541	0.1	)
(	2.2793296089385473	-0.09906379653567546	0.1	)
(	2.2960893854748603	-0.1158647529239584	0.1	)
(	2.3128491620111733	-0.13202361390568373	0.1	)
(	2.329608938547486	-0.147450830846346	0.1	)
(	2.346368715083799	-0.16206090971188036	0.1	)
(	2.363128491620112	-0.17577288485663228	0.1	)
(	2.3798882681564244	-0.18851076771606315	0.1	)
(	2.3966480446927374	-0.2002039679176322	0.1	)
(	2.4134078212290504	-0.21078768447615678	0.1	)
(	2.430167597765363	-0.2202032649057422	0.1	)
(	2.446927374301676	-0.22839853025816412	0.1	)
(	2.463687150837989	-0.23532806428641426	0.1	)
(	2.4804469273743015	-0.24095346513093782	0.1	)
(	2.4972067039106145	-0.24524355813377252	0.1	)
(	2.5139664804469275	-0.2481745686012231	0.1	)
(	2.53072625698324	-0.24973025355766318	0.1	)
(	2.547486033519553	-0.2499019917603128	0.1	)
(	2.564245810055866	-0.2486888314761533	0.1	)
(	2.5810055865921786	-0.24609749575620968	0.1	)
(	2.5977653631284916	-0.24214234517797079	0.1	)
(	2.6145251396648046	-0.23684529826242293	0.1	)
(	2.631284916201117	-0.23023571000672427	0.1	)
(	2.64804469273743	-0.22235020920566437	0.1	)
(	2.664804469273743	-0.21323249546343692	0.1	)
(	2.6815642458100557	-0.20293309702063694	0.1	)
(	2.6983240223463687	-0.19150909073854888	0.1	)
(	2.7150837988826817	-0.17902378579250922	0.1	)
(	2.7318435754189943	-0.1655463728272402	0.1	)
(	2.7486033519553073	-0.1511515405184505	0.1	)
(	2.7653631284916202	-0.13591906166563636	0.1	)
(	2.782122905027933	-0.11993335110985247	0.1	)
(	2.798882681564246	-0.10328299792637248	0.1	)
(	2.815642458100559	-0.08606027448472132	0.1	)
(	2.8324022346368714	-0.06836062509674769	0.1	)
(	2.8491620111731844	-0.050282137086532425	0.1	)
(	2.8659217877094973	-0.03192499721334421	0.1	)
(	2.88268156424581	-0.013390936460012189	0.1	)
(	2.899441340782123	0.005217333736429964	0.1	)
(	2.916201117318436	0.023796690687539965	0.1	)
(	2.9329608938547485	0.042244171935330414	0.1	)
(	2.9537430167597765	0.05803236604129277	0.1	)
(	2.9745251396648045	0.07183043777753031	0.1	)
(	2.9953072625698325	0.08363838714404309	0.1	)
(	3.0160893854748605	0.09345621414083105	0.1	)
(	3.036871508379888	0.10128391876789411	0.1	)
(	3.057653631284916	0.10712150102523255	0.1	)
(	3.078435754189944	0.11096896091284619	0.1	)
(	3.099217877094972	0.11282629843073506	0.1	)
(	3.12	0.11269351357889913	0.1	)
(	3.12	0.11269351357889913	0.1	)
(	3.14	0.11269351357889913	0.1	)
(	3.16	0.11269351357889913	0.1	)
(	3.1799999999999997	0.11269351357889913	0.1	)
(	3.2	0.11269351357889913	0.1	)
(	3.2199999999999998	0.11269351357889913	0.1	)
(	3.24	0.11269351357889913	0.1	)
(	3.26	0.11269351357889913	0.1	)
(	3.2800000000000002	0.11269351357889913	0.1	)
(	3.3	0.11269351357889913	0.1	)
(	3.32	0.11269351357889913	0.1	)
(	3.34	0.11269351357889913	0.1	)
(	3.36	0.11269351357889913	0.1	)
(	3.38	0.11269351357889913	0.1	)
(	3.4	0.11269351357889913	0.1	)
(	3.42	0.11269351357889913	0.1	)
(	3.44	0.11269351357889913	0.1	)
(	3.46	0.11269351357889913	0.1	)
(	3.48	0.11269351357889913	0.1	)
(	3.5	0.11269351357889913	0.1	)
(	3.52	0.11269351357889913	0.1	)
(	3.54	0.11269351357889913	0.1	)
(	3.56	0.11269351357889913	0.1	)
(	3.58	0.11269351357889913	0.1	)
(	3.6	0.11269351357889913	0.1	)
(	3.62	0.11269351357889913	0.1	)
(	3.64	0.11269351357889913	0.1	)
(	3.66	0.11269351357889913	0.1	)
(	3.68	0.11269351357889913	0.1	)
(	3.7	0.11269351357889913	0.1	)
(	3.7199999999999998	0.11269351357889913	0.1	)
(	3.74	0.11269351357889913	0.1	)
(	3.76	0.11269351357889913	0.1	)
(	3.78	0.11269351357889913	0.1	)
(	3.8	0.11269351357889913	0.1	)
(	3.82	0.11269351357889913	0.1	)
(	3.84	0.11269351357889913	0.1	)
(	3.86	0.11269351357889913	0.1	)
(	3.88	0.11269351357889913	0.1	)
(	3.9	0.11269351357889913	0.1	)
(	3.92	0.11269351357889913	0.1	)
(	3.94	0.11269351357889913	0.1	)
(	3.96	0.11269351357889913	0.1	)
(	3.98	0.11269351357889913	0.1	)
(	4.0	0.11269351357889913	0.1	)
)
	polyLine 3 2 ((	-1.0	0.4274632538461623	0	)
(	-0.98	0.428295908934052	0	)
(	-0.96	0.4291285640219417	0	)
(	-0.94	0.4299612191098314	0	)
(	-0.92	0.43079387419772114	0	)
(	-0.9	0.43162652928561085	0	)
(	-0.88	0.4324591843735006	0	)
(	-0.86	0.4332918394613903	0	)
(	-0.84	0.43412449454928004	0	)
(	-0.8200000000000001	0.43495714963716975	0	)
(	-0.8	0.43578980472505946	0	)
(	-0.78	0.43662245981294917	0	)
(	-0.76	0.4374551149008389	0	)
(	-0.74	0.4382877699887286	0	)
(	-0.72	0.4391204250766183	0	)
(	-0.7	0.43995308016450807	0	)
(	-0.6799999999999999	0.4407857352523978	0	)
(	-0.6599999999999999	0.4416183903402875	0	)
(	-0.64	0.4424510454281772	0	)
(	-0.62	0.4432837005160669	0	)
(	-0.6	0.4441163556039566	0	)
(	-0.5800000000000001	0.44494901069184634	0	)
(	-0.56	0.44578166577973605	0	)
(	-0.54	0.44661432086762576	0	)
(	-0.52	0.44744697595551547	0	)
(	-0.5	0.44827963104340524	0	)
(	-0.48	0.44911228613129495	0	)
(	-0.45999999999999996	0.44994494121918466	0	)
(	-0.43999999999999995	0.45077759630707437	0	)
(	-0.42000000000000004	0.4516102513949641	0	)
(	-0.4	0.4524429064828538	0	)
(	-0.38	0.4532755615707435	0	)
(	-0.36	0.4541082166586332	0	)
(	-0.33999999999999997	0.4549408717465229	0	)
(	-0.31999999999999995	0.45577352683441263	0	)
(	-0.29999999999999993	0.4566061819223024	0	)
(	-0.28	0.4574388370101921	0	)
(	-0.26	0.4582714920980818	0	)
(	-0.24	0.45910414718597153	0	)
(	-0.21999999999999997	0.45993680227386124	0	)
(	-0.19999999999999996	0.46076945736175096	0	)
(	-0.17999999999999994	0.46160211244964067	0	)
(	-0.16000000000000003	0.4624347675375304	0	)
(	-0.14	0.4632674226254201	0	)
(	-0.12	0.46410007771330986	0	)
(	-0.09999999999999998	0.46493273280119957	0	)
(	-0.07957790192427062	0.46533535858275177	0	)
(	-0.059155803848541265	0.46684793124319446	0	)
(	-0.038733705772811905	0.4694704507825279	0	)
(	-0.018311607697082552	0.473202917200752	0	)
(	0.002110490378646801	0.4780453304978668	0	)
(	0.022532588454376168	0.4839976906738722	0	)
(	0.04295468653010551	0.4910599977287683	0	)
(	0.06337678460583487	0.499232251662555	0	)
(	0.08379888268156424	0.5085144524752325	0	)
(	0.08379888268156424	0.5085144524752325	0	)
(	0.1005586592178771	0.5166032020422195	0	)
(	0.11731843575418995	0.5245999405402971	0	)
(	0.1340782122905028	0.5324603519119285	0	)
(	0.15083798882681565	0.5401408755926799	0	)
(	0.16759776536312848	0.5475989479136965	0	)
(	0.18435754189944134	0.5547932379796175	0	)
(	0.2011173184357542	0.5616838767147477	0	)
(	0.21787709497206703	0.5682326778081647	0	)
(	0.2346368715083799	0.5744033493333384	0	)
(	0.25139664804469275	0.5801616948695136	0	)
(	0.2681564245810056	0.585475803010289	0	)
(	0.2849162011173184	0.5903162242091801	0	)
(	0.3016759776536313	0.5946561339821295	0	)
(	0.31843575418994413	0.5984714815625344	0	)
(	0.33519553072625696	0.6017411231849787	0	)
(	0.35195530726256985	0.6044469392590448	0	)
(	0.3687150837988827	0.6065739347838515	0	)
(	0.3854748603351955	0.6081103224468488	0	)
(	0.4022346368715084	0.6090475879463515	0	)
(	0.41899441340782123	0.6093805371758104	0	)
(	0.43575418994413406	0.609107325008339	0	)
(	0.4525139664804469	0.6082294655219748	0	)
(	0.4692737430167598	0.606751823609013	0	)
(	0.4860335195530726	0.6046825880159097	0	)
(	0.5027932960893855	0.6020332259631599	0	)
(	0.5195530726256983	0.5988184195966404	0	)
(	0.5363128491620112	0.5950559846225845	0	)
(	0.553072625698324	0.5907667715770988	0	)
(	0.5698324022346368	0.5859745502773602	0	)
(	0.5865921787709497	0.5807058780948396	0	)
(	0.6033519553072626	0.5749899527805499	0	)
(	0.6201117318435754	0.5688584506579277	0	)
(	0.6368715083798883	0.5623453510800454	0	)
(	0.6536312849162011	0.5554867481239701	0	)
(	0.6703910614525139	0.5483206505658169	0	)
(	0.6871508379888268	0.540886771244986	0	)
(	0.7039106145251397	0.5332263069848802	0	)
(	0.7206703910614525	0.5253817102897287	0	)
(	0.7374301675977654	0.517396454082721	0	)
(	0.7541899441340782	0.5093147907892179	0	)
(	0.770949720670391	0.5011815071001428	0	)
(	0.7877094972067039	0.49304167577459773	0	)
(	0.8044692737430168	0.4849404058571576	0	)
(	0.8212290502793296	0.4769225926940773	0	)
(	0.8379888268156425	0.46903266913376607	0	)
(	0.8547486033519552	0.46131435929031683	0	)
(	0.8715083798882681	0.45381043623467454	0	)
(	0.888268156424581	0.4465624849562653	0	)
(	0.9050279329608938	0.43961067190869463	0	)
(	0.9217877094972067	0.4329935224166399	0	)
(	0.9385474860335196	0.42674770717749755	0	)
(	0.9553072625698323	0.42090783904093954	0	)
(	0.9720670391061452	0.4155062811925833	0	)
(	0.9888268156424581	0.4105729678047735	0	)
(	1.005586592178771	0.4061352381483881	0	)
(	1.0223463687150838	0.40221768508498357	0	)
(	1.0391061452513966	0.3988420187788977	0	)
(	1.0558659217877095	0.39602694638458874	0	)